Version 4
SHEET 1 880 680
SYMBOL IshibeESD -16 256 R0
SYMATTR InstName X1
