Version 4
SHEET 1 880 680
SYMBOL ind 160 112 R0
SYMATTR InstName L1
SYMBOL ind 16 48 R0
SYMATTR InstName L2
